/*--------------------------------*- C++ -*----------------------------------*\
  =========                 |
  \\      /  F ield         | OpenFOAM: The Open Source CFD Toolbox
   \\    /   O peration     | Website:  https://openfoam.org
    \\  /    A nd           | Version:  10
     \\/     M anipulation  |
\*---------------------------------------------------------------------------*/
FoamFile
{
    format      ascii;
    class       extendedFeatureEdgeMesh;
    location    "constant/extendedFeatureEdgeMesh";
    object      ground.extendedFeatureEdgeMesh;
}
// * * * * * * * * * * * * * * * * * * * * * * * * * * * * * * * * * * * * * //

// points

879
(
(-50 -9.7 0)
(122 9.1 100)
(-50 -9.7 100)
(240 -5.64 100)
(122 9.1 0)
(240 -5.64 0)
(4 -8.78 0)
(5 -8.75 0)
(-47 -9.64 0)
(-46 -9.62 0)
(-32 -9.32 0)
(-31 -9.3 0)
(-50 -9.7 71)
(-50 -9.7 70)
(17 -8.32 100)
(16 -8.36 100)
(-12 -9.23 100)
(-13 -9.26 100)
(240 -5.64 47)
(240 -5.64 48)
(138 5.27 0)
(139 4.34 0)
(-50 -9.7 2)
(-50 -9.7 1)
(-45 -9.6 0)
(-30 -9.28 0)
(-29 -9.26 0)
(-28 -9.25 0)
(-50 -9.7 21)
(-50 -9.7 20)
(65 4.16 0)
(66 4.69 0)
(-50 -9.7 29)
(-50 -9.7 28)
(-50 -9.7 66)
(-50 -9.7 65)
(-39 -9.47 100)
(-40 -9.49 100)
(19 -8.23 100)
(18 -8.28 100)
(38 -6.88 100)
(37 -7.18 100)
(35 -7.39 100)
(34 -7.46 100)
(84 9.98 100)
(83 9.89 100)
(74 8.57 100)
(73 8.47 100)
(106 11.48 100)
(105 11.61 100)
(141 3.15 100)
(140 3.81 100)
(149 -0.44 100)
(148 -0.19 100)
(191 -4.06 100)
(190 -4.07 100)
(240 -5.64 61)
(240 -5.64 62)
(133 7.72 0)
(134 7.32 0)
(132 7.96 0)
(186 -3.73 0)
(187 -3.89 0)
(188 -3.94 0)
(240 -5.64 18)
(240 -5.64 19)
(240 -5.64 6)
(240 -5.64 7)
(229 -5.65 0)
(230 -5.76 0)
(235 -6 0)
(236 -5.99 0)
(-44 -9.58 0)
(-43 -9.56 0)
(-49 -9.68 0)
(-50 -9.7 3)
(-39 -9.47 0)
(-38 -9.45 0)
(-20 -9.39 0)
(-19 -9.4 0)
(-21 -9.33 0)
(-17 -9.36 0)
(-16 -9.34 0)
(-50 -9.7 13)
(-50 -9.7 12)
(-13 -9.26 0)
(-12 -9.23 0)
(-8 -9.11 0)
(-7 -9.09 0)
(-2 -8.96 0)
(-1 -8.94 0)
(10 -8.58 0)
(11 -8.55 0)
(9 -8.61 0)
(7 -8.68 0)
(8 -8.65 0)
(15 -8.4 0)
(16 -8.36 0)
(14 -8.44 0)
(20 -8.19 0)
(21 -8.15 0)
(51 -4.74 0)
(52 -4.36 0)
(49 -5.37 0)
(50 -5.08 0)
(55 -3.01 0)
(56 -2.34 0)
(58 -0.81 0)
(59 -0.15 0)
(84 9.98 0)
(85 10.11 0)
(86 10.26 0)
(87 10.31 0)
(92 11.01 0)
(93 11.23 0)
(82 9.72 0)
(83 9.89 0)
(-50 -9.7 25)
(-50 -9.7 24)
(-50 -9.7 38)
(-50 -9.7 37)
(-50 -9.7 32)
(-50 -9.7 31)
(-50 -9.7 39)
(-50 -9.7 44)
(-50 -9.7 43)
(-50 -9.7 48)
(-50 -9.7 47)
(-50 -9.7 50)
(-50 -9.7 49)
(-50 -9.7 58)
(-50 -9.7 57)
(-50 -9.7 79)
(-50 -9.7 78)
(-50 -9.7 81)
(-50 -9.7 80)
(-50 -9.7 86)
(-50 -9.7 85)
(-47 -9.64 100)
(-48 -9.65 100)
(-36 -9.4 100)
(-37 -9.43 100)
(-27 -9.24 100)
(-28 -9.25 100)
(-18 -9.38 100)
(-19 -9.4 100)
(-6 -9.07 100)
(-7 -9.09 100)
(-5 -9.04 100)
(-14 -9.3 100)
(-11 -9.2 100)
(6 -8.72 100)
(5 -8.75 100)
(3 -8.82 100)
(2 -8.85 100)
(12 -8.51 100)
(11 -8.55 100)
(29 -7.76 100)
(28 -7.82 100)
(48 -5.63 100)
(47 -5.83 100)
(90 10.63 100)
(89 10.54 100)
(93 11.23 100)
(92 11.01 100)
(99 11.99 100)
(98 12.02 100)
(113 10.56 100)
(112 10.79 100)
(114 10.28 100)
(123 8.43 100)
(116 9.72 100)
(115 9.96 100)
(118 9.31 100)
(117 9.52 100)
(142 2.63 100)
(150 -0.77 100)
(153 -1.58 100)
(152 -1.32 100)
(151 -1.08 100)
(154 -1.66 100)
(158 -1.77 100)
(157 -1.76 100)
(162 -1.81 100)
(161 -1.82 100)
(160 -1.88 100)
(164 -1.86 100)
(163 -1.82 100)
(172 -2.33 100)
(171 -2.32 100)
(177 -2.65 100)
(176 -2.54 100)
(175 -2.41 100)
(182 -3 100)
(181 -2.88 100)
(192 -3.99 100)
(197 -4.58 100)
(196 -4.51 100)
(212 -4.66 100)
(211 -4.79 100)
(216 -4.19 100)
(215 -4.25 100)
(214 -4.33 100)
(236 -5.99 100)
(235 -6 100)
(234 -6 100)
(233 -5.97 100)
(229 -5.65 100)
(228 -5.54 100)
(240 -5.64 72)
(240 -5.64 73)
(240 -5.64 31)
(240 -5.64 32)
(95 11.68 0)
(96 11.86 0)
(118 9.31 0)
(119 9.1 0)
(112 10.79 0)
(113 10.56 0)
(120 9.05 0)
(123 8.43 0)
(124 8.04 0)
(141 3.15 0)
(142 2.63 0)
(146 0.69 0)
(147 0.1 0)
(148 -0.19 0)
(149 -0.44 0)
(178 -2.68 0)
(179 -2.76 0)
(164 -1.86 0)
(165 -1.91 0)
(168 -2.07 0)
(169 -2.17 0)
(180 -2.86 0)
(175 -2.41 0)
(176 -2.54 0)
(190 -4.07 0)
(191 -4.06 0)
(195 -4.24 0)
(196 -4.51 0)
(240 -5.64 17)
(240 -5.64 16)
(240 -5.64 5)
(201 -4.4 0)
(202 -4.25 0)
(207 -4.52 0)
(208 -4.55 0)
(219 -4.32 0)
(220 -4.52 0)
(221 -4.74 0)
(224 -4.91 0)
(225 -5.07 0)
(-48 -9.65 0)
(-42 -9.54 0)
(-41 -9.51 0)
(-50 -9.7 4)
(-50 -9.7 5)
(-50 -9.7 7)
(-50 -9.7 6)
(-36 -9.4 0)
(-35 -9.38 0)
(-40 -9.49 0)
(-37 -9.43 0)
(-34 -9.36 0)
(-33 -9.34 0)
(-27 -9.24 0)
(-26 -9.24 0)
(-25 -9.25 0)
(-24 -9.26 0)
(-23 -9.27 0)
(-22 -9.29 0)
(-15 -9.32 0)
(-14 -9.3 0)
(-18 -9.38 0)
(-50 -9.7 8)
(-50 -9.7 9)
(-50 -9.7 10)
(-50 -9.7 11)
(-50 -9.7 14)
(-50 -9.7 15)
(-50 -9.7 17)
(-50 -9.7 16)
(-50 -9.7 18)
(-50 -9.7 19)
(-50 -9.7 22)
(-50 -9.7 23)
(-50 -9.7 26)
(-11 -9.2 0)
(-10 -9.17 0)
(-9 -9.13 0)
(-6 -9.07 0)
(-5 -9.04 0)
(-3 -8.99 0)
(-4 -9.02 0)
(-0 -8.91 0)
(1 -8.88 0)
(2 -8.85 0)
(3 -8.82 0)
(6 -8.72 0)
(12 -8.51 0)
(13 -8.48 0)
(17 -8.32 0)
(18 -8.28 0)
(19 -8.23 0)
(22 -8.1 0)
(23 -8.06 0)
(24 -8.01 0)
(25 -7.96 0)
(26 -7.91 0)
(27 -7.87 0)
(28 -7.82 0)
(29 -7.76 0)
(31 -7.66 0)
(32 -7.61 0)
(30 -7.71 0)
(34 -7.46 0)
(35 -7.39 0)
(33 -7.52 0)
(36 -7.3 0)
(37 -7.18 0)
(38 -6.88 0)
(39 -6.48 0)
(40 -6.21 0)
(46 -6 0)
(47 -5.83 0)
(41 -6.35 0)
(42 -6.4 0)
(43 -6.32 0)
(44 -6.16 0)
(45 -6.11 0)
(48 -5.63 0)
(53 -3.94 0)
(54 -3.5 0)
(57 -1.55 0)
(60 0.44 0)
(61 0.97 0)
(62 2.05 0)
(63 2.83 0)
(67 5.3 0)
(64 3.53 0)
(68 5.93 0)
(69 6.67 0)
(74 8.57 0)
(75 8.7 0)
(70 7.38 0)
(71 7.98 0)
(72 8.24 0)
(73 8.47 0)
(76 8.93 0)
(77 9.09 0)
(80 9.47 0)
(81 9.6 0)
(78 9.27 0)
(79 9.39 0)
(88 10.41 0)
(89 10.54 0)
(90 10.63 0)
(91 10.79 0)
(94 11.43 0)
(-50 -9.7 27)
(-50 -9.7 30)
(-50 -9.7 33)
(-50 -9.7 34)
(-50 -9.7 35)
(-50 -9.7 36)
(-50 -9.7 40)
(-50 -9.7 41)
(-50 -9.7 42)
(-50 -9.7 45)
(-50 -9.7 46)
(-50 -9.7 51)
(-50 -9.7 52)
(-50 -9.7 53)
(-50 -9.7 54)
(-50 -9.7 55)
(-50 -9.7 56)
(-50 -9.7 60)
(-50 -9.7 59)
(-50 -9.7 61)
(-50 -9.7 62)
(-50 -9.7 63)
(-50 -9.7 64)
(-50 -9.7 67)
(-50 -9.7 68)
(-50 -9.7 69)
(-50 -9.7 72)
(-50 -9.7 75)
(-50 -9.7 74)
(-50 -9.7 73)
(-50 -9.7 76)
(-50 -9.7 77)
(-50 -9.7 82)
(-50 -9.7 83)
(-50 -9.7 84)
(-50 -9.7 87)
(-50 -9.7 88)
(-50 -9.7 89)
(-50 -9.7 90)
(-50 -9.7 91)
(-50 -9.7 92)
(-50 -9.7 93)
(-50 -9.7 94)
(-50 -9.7 95)
(-50 -9.7 96)
(-50 -9.7 97)
(-50 -9.7 98)
(-50 -9.7 99)
(-49 -9.68 100)
(-45 -9.6 100)
(-46 -9.62 100)
(-42 -9.54 100)
(-43 -9.56 100)
(-44 -9.58 100)
(-41 -9.51 100)
(-38 -9.45 100)
(-34 -9.36 100)
(-35 -9.38 100)
(-33 -9.34 100)
(-30 -9.28 100)
(-31 -9.3 100)
(-32 -9.32 100)
(-29 -9.26 100)
(-26 -9.24 100)
(-25 -9.25 100)
(-24 -9.26 100)
(-20 -9.39 100)
(-21 -9.33 100)
(-23 -9.27 100)
(-22 -9.29 100)
(-15 -9.32 100)
(-16 -9.34 100)
(-17 -9.36 100)
(-10 -9.17 100)
(-9 -9.13 100)
(-8 -9.11 100)
(-4 -9.02 100)
(-3 -8.99 100)
(-1 -8.94 100)
(-2 -8.96 100)
(-0 -8.91 100)
(1 -8.88 100)
(4 -8.78 100)
(8 -8.65 100)
(7 -8.68 100)
(9 -8.61 100)
(10 -8.58 100)
(13 -8.48 100)
(21 -8.15 100)
(20 -8.19 100)
(14 -8.44 100)
(15 -8.4 100)
(22 -8.1 100)
(23 -8.06 100)
(24 -8.01 100)
(27 -7.87 100)
(26 -7.91 100)
(25 -7.96 100)
(30 -7.71 100)
(32 -7.61 100)
(31 -7.66 100)
(36 -7.3 100)
(33 -7.52 100)
(39 -6.48 100)
(40 -6.21 100)
(43 -6.32 100)
(42 -6.4 100)
(41 -6.35 100)
(44 -6.16 100)
(45 -6.11 100)
(46 -6 100)
(49 -5.37 100)
(52 -4.36 100)
(51 -4.74 100)
(50 -5.08 100)
(54 -3.5 100)
(53 -3.94 100)
(55 -3.01 100)
(56 -2.34 100)
(57 -1.55 100)
(58 -0.81 100)
(59 -0.15 100)
(60 0.44 100)
(62 2.05 100)
(61 0.97 100)
(63 2.83 100)
(65 4.16 100)
(64 3.53 100)
(66 4.69 100)
(67 5.3 100)
(72 8.24 100)
(71 7.98 100)
(70 7.38 100)
(68 5.93 100)
(69 6.67 100)
(75 8.7 100)
(76 8.93 100)
(77 9.09 100)
(78 9.27 100)
(80 9.47 100)
(79 9.39 100)
(81 9.6 100)
(85 10.11 100)
(82 9.72 100)
(87 10.31 100)
(86 10.26 100)
(88 10.41 100)
(91 10.79 100)
(94 11.43 100)
(95 11.68 100)
(96 11.86 100)
(97 11.96 100)
(100 11.97 100)
(103 11.83 100)
(102 11.96 100)
(101 12.05 100)
(104 11.69 100)
(108 11.31 100)
(107 11.36 100)
(111 11.01 100)
(110 11.17 100)
(109 11.29 100)
(119 9.1 100)
(120 9.05 100)
(121 9.15 100)
(124 8.04 100)
(125 7.84 100)
(126 7.7 100)
(127 7.69 100)
(128 7.91 100)
(130 7.93 100)
(129 7.88 100)
(132 7.96 100)
(131 7.93 100)
(133 7.72 100)
(134 7.32 100)
(135 6.91 100)
(136 6.46 100)
(139 4.34 100)
(138 5.27 100)
(137 5.88 100)
(143 2.16 100)
(145 1.39 100)
(144 1.77 100)
(146 0.69 100)
(147 0.1 100)
(155 -1.67 100)
(156 -1.75 100)
(159 -1.87 100)
(165 -1.91 100)
(167 -2 100)
(166 -1.95 100)
(168 -2.07 100)
(169 -2.17 100)
(170 -2.22 100)
(174 -2.38 100)
(173 -2.36 100)
(178 -2.68 100)
(180 -2.86 100)
(179 -2.76 100)
(183 -3.13 100)
(185 -3.54 100)
(184 -3.17 100)
(186 -3.73 100)
(187 -3.89 100)
(188 -3.94 100)
(189 -4.01 100)
(194 -4.13 100)
(193 -4.04 100)
(195 -4.24 100)
(198 -4.67 100)
(199 -4.55 100)
(203 -4.27 100)
(202 -4.25 100)
(201 -4.4 100)
(205 -4.33 100)
(204 -4.28 100)
(200 -4.47 100)
(206 -4.44 100)
(208 -4.55 100)
(207 -4.52 100)
(209 -4.76 100)
(210 -4.88 100)
(213 -4.46 100)
(217 -4.13 100)
(219 -4.32 100)
(218 -4.17 100)
(220 -4.52 100)
(222 -4.86 100)
(221 -4.74 100)
(232 -5.9 100)
(231 -5.81 100)
(224 -4.91 100)
(223 -4.89 100)
(225 -5.07 100)
(226 -5.26 100)
(227 -5.52 100)
(230 -5.76 100)
(238 -5.79 100)
(237 -5.87 100)
(239 -5.73 100)
(240 -5.64 97)
(240 -5.64 98)
(240 -5.64 99)
(240 -5.64 96)
(240 -5.64 95)
(240 -5.64 94)
(240 -5.64 93)
(240 -5.64 92)
(240 -5.64 91)
(240 -5.64 90)
(240 -5.64 89)
(240 -5.64 88)
(240 -5.64 87)
(240 -5.64 86)
(240 -5.64 84)
(240 -5.64 85)
(240 -5.64 83)
(240 -5.64 82)
(240 -5.64 81)
(240 -5.64 80)
(240 -5.64 78)
(240 -5.64 79)
(240 -5.64 77)
(240 -5.64 76)
(240 -5.64 75)
(240 -5.64 74)
(240 -5.64 71)
(240 -5.64 70)
(240 -5.64 68)
(240 -5.64 69)
(240 -5.64 67)
(240 -5.64 66)
(240 -5.64 65)
(240 -5.64 64)
(240 -5.64 63)
(240 -5.64 58)
(240 -5.64 59)
(240 -5.64 60)
(240 -5.64 57)
(240 -5.64 56)
(240 -5.64 55)
(240 -5.64 54)
(240 -5.64 52)
(240 -5.64 53)
(240 -5.64 51)
(240 -5.64 50)
(240 -5.64 49)
(240 -5.64 46)
(240 -5.64 45)
(240 -5.64 44)
(240 -5.64 43)
(240 -5.64 42)
(240 -5.64 41)
(240 -5.64 40)
(240 -5.64 38)
(240 -5.64 39)
(240 -5.64 37)
(240 -5.64 36)
(240 -5.64 35)
(240 -5.64 33)
(240 -5.64 34)
(240 -5.64 30)
(240 -5.64 29)
(240 -5.64 27)
(240 -5.64 28)
(240 -5.64 26)
(240 -5.64 25)
(240 -5.64 24)
(100 11.97 0)
(101 12.05 0)
(102 11.96 0)
(97 11.96 0)
(98 12.02 0)
(99 11.99 0)
(103 11.83 0)
(104 11.69 0)
(105 11.61 0)
(106 11.48 0)
(107 11.36 0)
(108 11.31 0)
(109 11.29 0)
(111 11.01 0)
(110 11.17 0)
(114 10.28 0)
(115 9.96 0)
(116 9.72 0)
(117 9.52 0)
(121 9.15 0)
(126 7.7 0)
(127 7.69 0)
(125 7.84 0)
(128 7.91 0)
(129 7.88 0)
(130 7.93 0)
(131 7.93 0)
(135 6.91 0)
(137 5.88 0)
(140 3.81 0)
(136 6.46 0)
(143 2.16 0)
(144 1.77 0)
(145 1.39 0)
(155 -1.67 0)
(156 -1.75 0)
(152 -1.32 0)
(153 -1.58 0)
(154 -1.66 0)
(151 -1.08 0)
(150 -0.77 0)
(157 -1.76 0)
(158 -1.77 0)
(159 -1.87 0)
(160 -1.88 0)
(161 -1.82 0)
(162 -1.81 0)
(166 -1.95 0)
(167 -2 0)
(163 -1.82 0)
(172 -2.33 0)
(173 -2.36 0)
(177 -2.65 0)
(174 -2.38 0)
(170 -2.22 0)
(171 -2.32 0)
(181 -2.88 0)
(182 -3 0)
(183 -3.13 0)
(184 -3.17 0)
(185 -3.54 0)
(189 -4.01 0)
(192 -3.99 0)
(193 -4.04 0)
(194 -4.13 0)
(197 -4.58 0)
(198 -4.67 0)
(199 -4.55 0)
(200 -4.47 0)
(203 -4.27 0)
(204 -4.28 0)
(240 -5.64 22)
(240 -5.64 23)
(240 -5.64 21)
(240 -5.64 20)
(240 -5.64 15)
(240 -5.64 14)
(240 -5.64 13)
(240 -5.64 10)
(240 -5.64 11)
(240 -5.64 12)
(240 -5.64 9)
(240 -5.64 8)
(214 -4.33 0)
(215 -4.25 0)
(206 -4.44 0)
(205 -4.33 0)
(209 -4.76 0)
(210 -4.88 0)
(211 -4.79 0)
(212 -4.66 0)
(213 -4.46 0)
(216 -4.19 0)
(218 -4.17 0)
(217 -4.13 0)
(222 -4.86 0)
(223 -4.89 0)
(226 -5.26 0)
(227 -5.52 0)
(228 -5.54 0)
(231 -5.81 0)
(240 -5.64 4)
(240 -5.64 3)
(240 -5.64 2)
(234 -6 0)
(232 -5.9 0)
(233 -5.97 0)
(237 -5.87 0)
(238 -5.79 0)
(239 -5.73 0)
(240 -5.64 1)
(122 9.1 30)
(122 9.1 29)
(122 9.1 23)
(122 9.1 24)
(122 9.1 97)
(122 9.1 96)
(122 9.1 49)
(122 9.1 48)
(122 9.1 43)
(122 9.1 44)
(122 9.1 38)
(122 9.1 37)
(122 9.1 28)
(122 9.1 25)
(122 9.1 9)
(122 9.1 8)
(122 9.1 60)
(122 9.1 61)
(122 9.1 59)
(122 9.1 57)
(122 9.1 58)
(122 9.1 54)
(122 9.1 53)
(122 9.1 73)
(122 9.1 74)
(122 9.1 62)
(122 9.1 63)
(122 9.1 81)
(122 9.1 82)
(122 9.1 78)
(122 9.1 77)
(122 9.1 75)
(122 9.1 76)
(122 9.1 80)
(122 9.1 79)
(122 9.1 85)
(122 9.1 84)
(122 9.1 87)
(122 9.1 88)
(122 9.1 95)
(122 9.1 94)
(122 9.1 92)
(122 9.1 91)
(122 9.1 90)
(122 9.1 46)
(122 9.1 47)
(122 9.1 39)
(122 9.1 33)
(122 9.1 32)
(122 9.1 34)
(122 9.1 35)
(122 9.1 31)
(122 9.1 26)
(122 9.1 21)
(122 9.1 22)
(122 9.1 19)
(122 9.1 20)
(122 9.1 13)
(122 9.1 14)
(122 9.1 15)
(122 9.1 12)
(122 9.1 7)
(122 9.1 11)
(122 9.1 10)
(122 9.1 56)
(122 9.1 55)
(122 9.1 52)
(122 9.1 51)
(122 9.1 50)
(122 9.1 72)
(122 9.1 71)
(122 9.1 70)
(122 9.1 69)
(122 9.1 67)
(122 9.1 68)
(122 9.1 66)
(122 9.1 65)
(122 9.1 64)
(122 9.1 83)
(122 9.1 86)
(122 9.1 89)
(122 9.1 98)
(122 9.1 99)
(122 9.1 93)
(122 9.1 45)
(122 9.1 36)
(122 9.1 41)
(122 9.1 40)
(122 9.1 42)
(122 9.1 27)
(122 9.1 18)
(122 9.1 17)
(122 9.1 16)
(122 9.1 6)
(122 9.1 5)
(122 9.1 4)
(122 9.1 2)
(122 9.1 1)
(122 9.1 3)
)

// edges

880
(
(780 781)
(782 783)
(784 785)
(786 787)
(788 789)
(790 791)
(781 792)
(783 793)
(794 795)
(796 797)
(796 798)
(799 800)
(801 802)
(803 804)
(805 806)
(807 808)
(809 810)
(811 812)
(813 814)
(815 816)
(817 818)
(819 820)
(821 822)
(822 823)
(824 825)
(826 790)
(787 825)
(827 828)
(829 830)
(828 831)
(832 793)
(833 834)
(835 836)
(837 838)
(839 838)
(837 840)
(795 841)
(842 843)
(842 840)
(805 797)
(798 800)
(844 799)
(801 845)
(844 845)
(846 802)
(847 846)
(847 848)
(849 850)
(803 849)
(811 804)
(851 850)
(851 852)
(853 854)
(855 853)
(856 857)
(857 806)
(855 856)
(852 854)
(810 812)
(814 809)
(858 808)
(813 807)
(859 817)
(816 858)
(818 860)
(815 859)
(784 861)
(819 785)
(862 861)
(1 862)
(863 820)
(863 821)
(860 823)
(864 789)
(824 864)
(848 786)
(865 791)
(866 867)
(866 868)
(788 868)
(826 867)
(830 865)
(831 780)
(827 829)
(792 869)
(869 832)
(782 834)
(836 833)
(870 871)
(839 872)
(871 872)
(835 870)
(794 843)
(873 874)
(874 875)
(876 877)
(878 876)
(878 875)
(841 873)
(4 877)
(6 7)
(8 9)
(10 11)
(12 13)
(14 15)
(16 17)
(18 19)
(20 21)
(22 23)
(9 24)
(25 26)
(26 27)
(28 29)
(30 31)
(32 33)
(34 35)
(36 37)
(38 39)
(40 41)
(42 43)
(44 45)
(46 47)
(48 49)
(50 51)
(52 53)
(54 55)
(56 57)
(58 59)
(60 58)
(61 62)
(62 63)
(64 65)
(66 67)
(68 69)
(70 71)
(72 73)
(0 74)
(23 0)
(75 22)
(76 77)
(78 79)
(80 78)
(81 82)
(83 84)
(85 86)
(87 88)
(89 90)
(91 92)
(93 91)
(94 95)
(96 97)
(98 96)
(99 100)
(101 102)
(103 104)
(105 106)
(107 108)
(109 110)
(111 112)
(113 114)
(115 116)
(117 118)
(119 120)
(121 122)
(123 119)
(124 125)
(126 127)
(128 129)
(130 131)
(132 133)
(134 135)
(136 137)
(138 139)
(140 141)
(142 143)
(144 145)
(146 147)
(148 146)
(17 149)
(150 16)
(151 152)
(153 154)
(155 156)
(39 14)
(157 158)
(159 160)
(161 162)
(163 164)
(165 166)
(167 168)
(169 167)
(170 1)
(171 172)
(173 174)
(175 50)
(176 52)
(177 178)
(179 176)
(180 177)
(181 182)
(183 184)
(184 185)
(186 187)
(188 189)
(190 191)
(191 192)
(193 194)
(195 54)
(196 197)
(198 199)
(200 201)
(201 202)
(203 204)
(205 206)
(207 208)
(209 210)
(211 212)
(213 214)
(215 216)
(217 218)
(216 219)
(220 221)
(222 223)
(224 225)
(226 227)
(228 229)
(230 231)
(232 233)
(229 234)
(235 236)
(237 238)
(239 240)
(241 64)
(242 241)
(243 66)
(244 245)
(246 247)
(248 249)
(249 250)
(251 252)
(253 8)
(254 255)
(73 254)
(24 72)
(74 253)
(256 75)
(257 256)
(258 259)
(260 261)
(262 76)
(255 262)
(263 260)
(77 263)
(261 264)
(264 265)
(11 25)
(265 10)
(266 267)
(27 266)
(267 268)
(268 269)
(269 270)
(271 80)
(270 271)
(272 273)
(79 274)
(274 81)
(82 272)
(259 257)
(275 258)
(276 275)
(277 276)
(278 277)
(84 278)
(279 83)
(280 279)
(281 282)
(282 280)
(283 281)
(284 283)
(29 284)
(285 28)
(286 285)
(118 286)
(287 117)
(288 289)
(86 288)
(273 85)
(289 290)
(290 87)
(88 291)
(291 292)
(293 89)
(292 294)
(90 295)
(294 293)
(295 296)
(296 297)
(297 298)
(298 6)
(7 299)
(299 94)
(95 93)
(300 301)
(92 300)
(301 98)
(302 303)
(97 302)
(303 304)
(304 99)
(100 305)
(305 306)
(306 307)
(307 308)
(308 309)
(310 311)
(311 312)
(313 314)
(309 310)
(312 315)
(315 313)
(316 317)
(318 316)
(317 319)
(320 321)
(322 323)
(319 320)
(321 322)
(314 318)
(324 325)
(323 326)
(327 328)
(326 327)
(328 329)
(329 330)
(330 324)
(325 331)
(331 103)
(102 332)
(104 101)
(332 333)
(106 334)
(333 105)
(334 107)
(108 335)
(336 337)
(335 336)
(337 338)
(31 339)
(340 30)
(341 342)
(338 340)
(343 344)
(345 346)
(346 347)
(342 345)
(339 341)
(348 343)
(347 348)
(344 349)
(349 350)
(351 352)
(353 354)
(354 351)
(350 353)
(352 115)
(116 109)
(110 111)
(112 355)
(355 356)
(356 357)
(358 113)
(357 358)
(114 359)
(359 213)
(360 287)
(33 360)
(122 361)
(361 32)
(362 121)
(363 362)
(364 363)
(365 364)
(120 365)
(366 123)
(367 366)
(368 367)
(125 368)
(369 124)
(370 369)
(127 370)
(129 126)
(371 128)
(372 371)
(373 372)
(374 373)
(375 374)
(376 375)
(131 376)
(377 378)
(378 130)
(379 377)
(380 379)
(381 380)
(382 381)
(35 382)
(383 34)
(384 383)
(385 384)
(13 385)
(386 12)
(387 388)
(389 386)
(388 389)
(390 387)
(391 390)
(133 391)
(135 132)
(392 134)
(393 392)
(394 393)
(137 394)
(395 136)
(396 395)
(397 396)
(398 397)
(399 398)
(400 399)
(401 400)
(402 401)
(403 402)
(404 403)
(405 404)
(406 405)
(407 406)
(408 2)
(2 407)
(139 408)
(409 410)
(410 138)
(411 412)
(412 413)
(413 409)
(37 414)
(415 36)
(414 411)
(416 417)
(417 140)
(418 416)
(141 415)
(419 420)
(421 418)
(420 421)
(422 419)
(143 422)
(423 142)
(424 423)
(425 424)
(426 427)
(428 425)
(429 428)
(427 429)
(145 426)
(430 431)
(432 144)
(431 432)
(149 430)
(433 150)
(434 433)
(147 435)
(435 434)
(436 148)
(437 436)
(438 439)
(439 437)
(440 438)
(154 441)
(442 153)
(441 440)
(443 444)
(152 442)
(444 151)
(445 443)
(446 445)
(447 155)
(156 446)
(448 449)
(450 447)
(451 450)
(15 451)
(449 38)
(452 448)
(453 452)
(454 453)
(455 456)
(457 454)
(456 457)
(458 157)
(459 460)
(460 458)
(158 455)
(41 461)
(461 42)
(462 459)
(43 462)
(463 40)
(464 463)
(465 466)
(466 467)
(467 464)
(468 465)
(469 468)
(160 470)
(471 159)
(472 473)
(474 471)
(470 469)
(475 476)
(473 474)
(476 472)
(477 475)
(478 477)
(479 478)
(480 479)
(481 480)
(482 481)
(483 484)
(484 482)
(485 483)
(486 487)
(488 486)
(487 485)
(489 488)
(490 491)
(491 492)
(493 489)
(494 493)
(492 494)
(47 490)
(495 46)
(496 495)
(497 496)
(498 497)
(499 500)
(500 498)
(501 499)
(502 44)
(503 501)
(45 503)
(504 505)
(505 502)
(506 504)
(162 506)
(164 507)
(508 163)
(509 508)
(507 161)
(510 509)
(511 510)
(512 165)
(166 511)
(513 514)
(515 512)
(514 515)
(49 516)
(516 513)
(517 518)
(519 520)
(518 48)
(521 517)
(520 521)
(168 519)
(172 169)
(174 171)
(522 173)
(523 522)
(524 523)
(1 524)
(525 170)
(526 525)
(527 526)
(528 527)
(529 528)
(530 531)
(532 533)
(533 530)
(531 529)
(534 532)
(535 534)
(536 535)
(537 536)
(538 539)
(540 537)
(539 540)
(541 175)
(51 538)
(542 543)
(543 541)
(544 542)
(53 545)
(545 544)
(178 179)
(546 180)
(182 547)
(547 546)
(187 183)
(548 181)
(185 548)
(549 186)
(550 551)
(551 549)
(552 550)
(553 552)
(554 553)
(189 554)
(555 556)
(192 555)
(556 188)
(557 190)
(558 559)
(559 557)
(194 558)
(560 193)
(561 562)
(563 561)
(562 560)
(564 563)
(565 564)
(566 565)
(55 566)
(567 568)
(568 195)
(569 567)
(570 196)
(197 569)
(571 570)
(572 573)
(573 574)
(575 576)
(577 571)
(574 577)
(576 572)
(578 575)
(579 580)
(580 578)
(581 579)
(582 581)
(199 582)
(583 198)
(584 200)
(202 583)
(585 586)
(586 584)
(587 585)
(588 589)
(589 587)
(590 591)
(592 593)
(593 588)
(594 592)
(595 594)
(596 595)
(597 207)
(591 597)
(208 596)
(204 205)
(206 590)
(598 599)
(600 598)
(601 602)
(599 203)
(603 3)
(3 600)
(602 603)
(604 601)
(605 604)
(606 605)
(607 606)
(608 607)
(609 608)
(610 609)
(611 610)
(612 611)
(613 612)
(614 613)
(615 616)
(616 614)
(617 615)
(618 617)
(619 618)
(620 619)
(621 622)
(622 620)
(623 621)
(624 623)
(625 624)
(626 625)
(210 626)
(627 209)
(628 627)
(629 630)
(630 628)
(631 629)
(632 631)
(633 632)
(634 633)
(57 635)
(635 634)
(636 637)
(638 56)
(637 638)
(639 636)
(640 639)
(641 640)
(642 641)
(643 644)
(644 642)
(645 643)
(646 645)
(647 646)
(19 647)
(648 18)
(649 648)
(650 649)
(651 650)
(652 651)
(653 652)
(654 653)
(655 656)
(656 654)
(657 655)
(658 657)
(659 658)
(660 661)
(661 659)
(212 660)
(662 211)
(663 662)
(664 665)
(665 663)
(666 664)
(667 666)
(668 667)
(669 670)
(670 671)
(214 672)
(672 673)
(673 674)
(674 669)
(675 676)
(671 675)
(676 677)
(678 679)
(679 680)
(677 678)
(680 681)
(682 217)
(681 683)
(683 682)
(218 684)
(684 685)
(685 686)
(687 215)
(219 688)
(688 4)
(686 687)
(689 690)
(4 220)
(221 691)
(691 689)
(692 693)
(690 692)
(693 694)
(694 695)
(695 60)
(59 696)
(697 20)
(21 698)
(696 699)
(699 697)
(700 701)
(223 700)
(702 224)
(225 226)
(701 702)
(698 222)
(703 704)
(705 706)
(706 707)
(708 705)
(227 709)
(709 708)
(707 703)
(704 710)
(710 711)
(712 713)
(713 714)
(714 715)
(711 712)
(716 717)
(231 716)
(715 718)
(718 230)
(717 232)
(719 720)
(721 228)
(720 722)
(722 235)
(236 721)
(723 724)
(724 719)
(233 723)
(234 725)
(725 726)
(726 727)
(727 728)
(728 729)
(729 61)
(730 237)
(63 730)
(238 731)
(732 733)
(731 732)
(733 239)
(734 735)
(736 737)
(737 244)
(245 738)
(738 739)
(735 736)
(240 734)
(740 741)
(741 668)
(742 740)
(743 742)
(65 743)
(744 242)
(745 744)
(746 745)
(747 748)
(749 746)
(748 749)
(750 747)
(751 750)
(67 751)
(752 753)
(754 246)
(739 755)
(755 754)
(756 757)
(247 756)
(758 759)
(757 758)
(759 760)
(753 761)
(760 752)
(762 248)
(761 763)
(763 762)
(250 764)
(764 765)
(765 251)
(252 766)
(767 768)
(768 68)
(69 769)
(766 767)
(770 243)
(771 770)
(772 771)
(773 70)
(769 774)
(774 775)
(775 773)
(71 776)
(776 777)
(777 778)
(779 772)
(778 5)
(5 779)
)

// concaveStart mixedStart nonFeatureStart
0 0 6
// internalStart flatStart openStart multipleStart
0 100 100 880
// normals

976
(
(0.0299862 -0.99955 0)
(0.0199965 -0.9998 0)
(0.0199955 -0.9998 0)
(0.0199955 -0.9998 0)
(0.039968 -0.999201 0)
(0.0299872 -0.99955 0)
(0.0896379 -0.995974 0)
(-0.681013 -0.732272 0)
(0.0199955 -0.9998 0)
(0.0199955 -0.9998 0)
(0.0199955 -0.9998 0)
(0.00999973 -0.99995 0)
(0.0199955 -0.9998 0)
(0.468294 -0.883573 0)
(0.0199955 -0.9998 0)
(0.0199955 -0.9998 0)
(0.0199955 -0.9998 0)
(0.0499378 -0.998752 0)
(0.287348 -0.957826 0)
(0.0698293 -0.997559 0)
(0.0896369 -0.995975 0)
(0.0995032 -0.995037 0)
(-0.128915 -0.991656 -0)
(-0.550842 -0.834609 0)
(-0.242536 -0.970143 0)
(0.00999973 -0.99995 0)
(0.0896379 -0.995974 0)
(-0.37139 -0.928477 -0)
(-0.233373 -0.972387 -0)
(-0.157991 -0.987441 0)
(-0.0499376 -0.998752 -0)
(0.0896379 -0.995974 0)
(0.0896379 -0.995974 0)
(-0.109341 -0.994004 -0)
(0.00999973 -0.99995 0)
(0.0199955 -0.9998 0)
(0.0199955 -0.9998 0)
(0.0199955 -0.9998 0)
(0.0199965 -0.9998 0)
(-0.00999878 -0.99995 0)
(-0.0598927 -0.998205 0)
(0.0199955 -0.9998 0)
(0.0199955 -0.9998 0)
(0.0299872 -0.99955 0)
(0.0199955 -0.9998 0)
(0.0199965 -0.9998 0)
(0.0299862 -0.99955 0)
(0.0299862 -0.99955 0)
(0.0299872 -0.99955 0)
(0.039968 -0.999201 0)
(0.039968 -0.999201 0)
(0.039968 -0.999201 0)
(0.355217 -0.934784 0)
(0.278524 -0.960429 0)
(0.556616 -0.83077 0)
(0.550842 -0.834609 0)
(0.128915 -0.991656 0)
(0.0499378 -0.998752 0)
(0.214861 -0.976645 0)
(0.167596 -0.985856 0)
(0.0199955 -0.9998 0)
(0.0199955 -0.9998 0)
(0.0199955 -0.9998 0)
(0.0199955 -0.9998 0)
(0.0199955 -0.9998 0)
(0.0199955 -0.9998 0)
(0.0199955 -0.9998 0)
(0.0199955 -0.9998 0)
(0.0199955 -0.9998 0)
(0.0199955 -0.9998 0)
(0.0199955 -0.9998 0)
(0.00999878 -0.99995 0)
(0.0299872 -0.99955 0)
(0.00999973 -0.99995 0)
(0.0199955 -0.9998 0)
(0.0199965 -0.9998 0)
(0.0299862 -0.99955 0)
(0.039968 -0.999201 0)
(0.0299862 -0.99955 0)
(0.0299862 -0.99955 0)
(0.0299872 -0.99955 0)
(0.039968 -0.999201 0)
(0.039968 -0.999201 0)
(0.0598922 -0.998205 0)
(0.196116 -0.980581 0)
(0.0896379 -0.995974 0)
(0.214861 -0.976645 0)
(-0.0299872 -0.99955 0)
(-0.224147 -0.974555 -0)
(-0.269631 -0.962964 -0)
(-0.556616 -0.83077 0)
(-0.233373 -0.972387 -0)
(-0.205517 -0.978653 0)
(-0.461353 -0.887217 -0)
(-0.313377 -0.949629 0)
(-0.251634 -0.967823 0)
(-0.296099 -0.955157 -0)
(-0.0797451 -0.996815 -0)
(-0.00999949 -0.99995 0)
(0.00999961 -0.99995 0)
(0.0598922 -0.998205 0)
(-0.039968 -0.999201 -0)
(-0.00999949 -0.99995 0)
(-0.109341 -0.994004 0)
(-0.128915 -0.991656 0)
(-0.119145 -0.992877 0)
(0.0698291 -0.997559 0)
(-0.0698288 -0.997559 -0)
(0.128915 -0.991656 0)
(0.0598922 -0.998205 0)
(0.0797451 -0.996815 0)
(0.00999973 -0.99995 0)
(-0.0299867 -0.99955 -0)
(-0.109341 -0.994004 -0)
(0.0896379 -0.995974 0)
(0.0896379 -0.995974 0)
(0.177152 -0.984183 0)
(-0.205517 -0.978653 0)
(-0.224147 -0.974555 0)
(-0.0499378 -0.998752 -0)
(-0.363346 -0.931654 0)
(-0.461353 -0.887217 -0)
(-0.508149 -0.861269 -0)
(-0.242536 -0.970143 0)
(-0.0797451 -0.996815 0)
(-0.0499376 -0.998752 0)
(-0.0995039 -0.995037 -0)
(-0.0995036 -0.995037 0)
(-0.128915 -0.991656 -0)
(0.00999973 -0.99995 0)
(-0.260666 -0.965429 -0)
(0.0896379 -0.995974 0)
(0.0896379 -0.995974 0)
(0.0896379 -0.995974 0)
(0.148341 -0.988936 0)
(-0.0299867 -0.99955 0)
(-0.196116 -0.980581 0)
(-0.214862 -0.976645 0)
(-0.157991 -0.987441 0)
(0.00999878 -0.99995 0)
(0.0299862 -0.99955 0)
(0.0199965 -0.9998 0)
(0.0199965 -0.9998 0)
(0.0299872 -0.99955 0)
(0.0199955 -0.9998 0)
(0.0199955 -0.9998 0)
(0.0199955 -0.9998 0)
(0.0199955 -0.9998 0)
(0.0199955 -0.9998 0)
(0.0199965 -0.9998 0)
(0.0299872 -0.99955 0)
(0.0199955 -0.9998 0)
(0.0199965 -0.9998 0)
(0.0199955 -0.9998 0)
(0.0199965 -0.9998 0)
(0.0199965 -0.9998 0)
(0 -1 0)
(0.00999973 -0.99995 0)
(-0.00999973 -0.99995 0)
(-0.00999973 -0.99995 -0)
(-0.00999973 -0.99995 -0)
(-0.039968 -0.999201 -0)
(-0.0199955 -0.9998 -0)
(0.0199955 -0.9998 0)
(0.0199955 -0.9998 0)
(0.0199965 -0.9998 0)
(0.0199965 -0.9998 0)
(0.0199955 -0.9998 0)
(0.0199955 -0.9998 0)
(0.0199955 -0.9998 0)
(0.0199955 -0.9998 0)
(0.0199955 -0.9998 0)
(0.0199955 -0.9998 0)
(0.0199955 -0.9998 0)
(0.0199955 -0.9998 0)
(0.0199955 -0.9998 0)
(0.0199955 -0.9998 0)
(0.0199955 -0.9998 0)
(0.0199955 -0.9998 0)
(0.0199955 -0.9998 0)
(0.0199955 -0.9998 0)
(0.0199955 -0.9998 0)
(0.0199955 -0.9998 0)
(0.0199955 -0.9998 0)
(0.0299862 -0.99955 0)
(0.0299862 -0.99955 0)
(0.039968 -0.999201 0)
(0.039968 -0.999201 0)
(0.0199965 -0.9998 0)
(0.0199965 -0.9998 0)
(0.0299862 -0.99955 0)
(0.0299862 -0.99955 0)
(0.0199955 -0.9998 0)
(0.0299862 -0.99955 0)
(0.0299872 -0.99955 0)
(0.0299862 -0.99955 0)
(0.0299862 -0.99955 0)
(0.0299872 -0.99955 0)
(0.039968 -0.999201 0)
(0.0299862 -0.99955 0)
(0.039968 -0.999201 0)
(0.039968 -0.999201 0)
(0.0299872 -0.99955 0)
(0.039968 -0.999201 0)
(0.039968 -0.999201 0)
(0.039968 -0.999201 0)
(0.039968 -0.999201 0)
(0.0499378 -0.998752 0)
(0.039968 -0.999201 0)
(0.0499369 -0.998752 0)
(0.039968 -0.999201 0)
(0.0499378 -0.998752 0)
(0.0499378 -0.998752 0)
(0.0499378 -0.998752 0)
(0.0499373 -0.998752 0)
(0.0598922 -0.998205 0)
(0.0499373 -0.998752 0)
(0.039968 -0.999201 0)
(0.0499378 -0.998752 0)
(0.0499378 -0.998752 0)
(0.0698293 -0.997559 0)
(0.0598922 -0.998205 0)
(0.0896374 -0.995974 0)
(0.287348 -0.957826 0)
(0.260666 -0.965429 0)
(0.119146 -0.992877 0)
(0.371391 -0.928477 0)
(0.0896379 -0.995974 0)
(0.167596 -0.985856 0)
(-0.138648 -0.990342 0)
(0.0797451 -0.996815 0)
(-0.0499378 -0.998752 -0)
(0.157991 -0.987441 0)
(0.0499373 -0.998752 0)
(0.109341 -0.994004 0)
(0.196116 -0.980581 0)
(0.251634 -0.967822 0)
(0.387233 -0.921982 0)
(0.321903 -0.946773 0)
(0.402739 -0.915315 0)
(0.619899 -0.784682 0)
(0.440015 -0.89799 0)
(0.594843 -0.803842 0)
(0.508149 -0.861269 0)
(0.733761 -0.679408 0)
(0.468294 -0.883573 0)
(0.615032 -0.788502 0)
(0.520759 -0.853704 0)
(0.533038 -0.846092 0)
(0.594843 -0.803842 0)
(0.573462 -0.819232 0)
(0.128915 -0.991656 0)
(0.514496 -0.857493 0)
(0.251634 -0.967823 0)
(0.578922 -0.815383 0)
(0.533037 -0.846092 0)
(0.0995032 -0.995037 0)
(0.224148 -0.974555 0)
(0.224148 -0.974555 0)
(0.15799 -0.987441 0)
(0.128915 -0.991656 0)
(0.119145 -0.992877 0)
(0.0797451 -0.996815 0)
(0.177153 -0.984183 0)
(0.119145 -0.992877 0)
(0.0896369 -0.995975 0)
(0.148341 -0.988936 0)
(0.0995032 -0.995037 0)
(0.128915 -0.991656 0)
(0.0896379 -0.995974 0)
(0.214862 -0.976644 0)
(0.15799 -0.987441 0)
(0.196117 -0.980581 0)
(0.242536 -0.970143 0)
(0.0199955 -0.9998 0)
(0.0199955 -0.9998 0)
(0.0199955 -0.9998 0)
(0.0199955 -0.9998 0)
(0.0199955 -0.9998 0)
(0.0199955 -0.9998 0)
(0.0199955 -0.9998 0)
(0.0199955 -0.9998 0)
(0.0199955 -0.9998 0)
(0.0199955 -0.9998 0)
(0.0199955 -0.9998 0)
(0.0199955 -0.9998 0)
(0.0199955 -0.9998 0)
(0.0199955 -0.9998 0)
(0.0199955 -0.9998 0)
(0.0199955 -0.9998 0)
(0.0199955 -0.9998 0)
(0.0199955 -0.9998 0)
(0.0199955 -0.9998 0)
(0.0199955 -0.9998 0)
(0.0199955 -0.9998 0)
(0.0199955 -0.9998 0)
(0.0199955 -0.9998 0)
(0.0199955 -0.9998 0)
(0.0199955 -0.9998 0)
(0.0199955 -0.9998 0)
(0.0199955 -0.9998 0)
(0.0199955 -0.9998 0)
(0.0199955 -0.9998 0)
(0.0199955 -0.9998 0)
(0.0199955 -0.9998 0)
(0.0199955 -0.9998 0)
(0.0199955 -0.9998 0)
(0.0199955 -0.9998 0)
(0.0199955 -0.9998 0)
(0.0199955 -0.9998 0)
(0.0199955 -0.9998 0)
(0.0199955 -0.9998 0)
(0.0199955 -0.9998 0)
(0.0199955 -0.9998 0)
(0.0199955 -0.9998 0)
(0.0199955 -0.9998 0)
(0.0199955 -0.9998 0)
(0.0199955 -0.9998 0)
(0.0199955 -0.9998 0)
(0.0199955 -0.9998 0)
(0.0199955 -0.9998 0)
(0.0199955 -0.9998 0)
(0.0199955 -0.9998 0)
(0.0199955 -0.9998 0)
(0.0199955 -0.9998 0)
(0.0199955 -0.9998 0)
(0.0199955 -0.9998 0)
(0.0199955 -0.9998 0)
(0.0199955 -0.9998 0)
(0.0199955 -0.9998 0)
(0.0199955 -0.9998 0)
(0.0199955 -0.9998 0)
(0.0199955 -0.9998 0)
(0.0199955 -0.9998 0)
(0.0199955 -0.9998 0)
(0.0199955 -0.9998 0)
(0.0299872 -0.99955 0)
(0.0199955 -0.9998 0)
(0.0199965 -0.9998 0)
(0.0199965 -0.9998 0)
(0.0199955 -0.9998 0)
(0.0199965 -0.9998 0)
(0.0199965 -0.9998 0)
(0.0199965 -0.9998 0)
(0.0299862 -0.99955 0)
(0.0199965 -0.9998 0)
(0.0199955 -0.9998 0)
(0.0199955 -0.9998 0)
(0.0199955 -0.9998 0)
(0.0199965 -0.9998 0)
(0.0199965 -0.9998 0)
(0.0199955 -0.9998 0)
(0.0199955 -0.9998 0)
(0.00999973 -0.99995 0)
(0 -1 0)
(-0.00999973 -0.99995 0)